networks/opendss/CKT_1053_12976.dss
! OpenDSS script generated from multiconductor network
Clear

New Circuit.mc_network basekv=12.0 pu=1.000000 angle=0.00 frequency=60.0 phases=3 Mvasc3=143993 Mvasc1=47997.6
~ bus1=-8888882183446.1.2.3

! Line codes
New LineCode.1000_CLP_3PH_12KV_3 nphases=3 units=km Rmatrix=[ 0.001378 | 0 0.001378 | 0 0 0.001378 ] Xmatrix=[ 0.002085 | 0 0.002085 | 0 0 0.002085 ] Cmatrix=[ 0 | 0 0 | 0 0 0 ]
New LineCode.350_CLP_3PH_12KV_3 nphases=3 units=km Rmatrix=[ 0.019904 | 0 0.019904 | 0 0 0.019904 ] Xmatrix=[ 0.015123 | 0 0.015123 | 0 0 0.015123 ] Cmatrix=[ 0 | 0 0 | 0 0 0 ]
New LineCode.2_CLP_3PH_12KV_3 nphases=3 units=km Rmatrix=[ 0.110526 | 0 0.110526 | 0 0 0.110526 ] Xmatrix=[ 0.023297 | 0 0.023297 | 0 0 0.023297 ] Cmatrix=[ 0 | 0 0 | 0 0 0 ]
New LineCode.350_JCN_3PH_12KV_3 nphases=3 units=km Rmatrix=[ 0.161582 | 0 0.161582 | 0 0 0.161582 ] Xmatrix=[ 0.122769 | 0 0.122769 | 0 0 0.122769 ] Cmatrix=[ 0 | 0 0 | 0 0 0 ]
New LineCode.2_CLP_1PH_12KV_1 nphases=1 units=km Rmatrix=[ 0.043252 ] Xmatrix=[ 0.009117 ] Cmatrix=[ 0 ]
New LineCode.2_CLP_2PH_12KV_2 nphases=2 units=km Rmatrix=[ 0.107265 | 0 0.107265 ] Xmatrix=[ 0.022609 | 0 0.022609 ] Cmatrix=[ 0 | 0 0 ]
New LineCode.1/0_CLP_2PH_12KV_2 nphases=2 units=km Rmatrix=[ 0.006613 | 0 0.006613 ] Xmatrix=[ 0.002021 | 0 0.002021 ] Cmatrix=[ 0 | 0 0 ]
New LineCode.1/0_CLP_1PH_12KV_1 nphases=1 units=km Rmatrix=[ 0.012326 ] Xmatrix=[ 0.003767 ] Cmatrix=[ 0 ]
New LineCode.1/0_JCN_3PH_12KV_3 nphases=3 units=km Rmatrix=[ 0.024113 | 0 0.024113 | 0 0 0.024113 ] Xmatrix=[ 0.00737 | 0 0.00737 | 0 0 0.00737 ] Cmatrix=[ 0 | 0 0 | 0 0 0 ]
New LineCode.1/0_CLP_3PH_12KV_3 nphases=3 units=km Rmatrix=[ 0.065019 | 0 0.065019 | 0 0 0.065019 ] Xmatrix=[ 0.019873 | 0 0.019873 | 0 0 0.019873 ] Cmatrix=[ 0 | 0 0 | 0 0 0 ]
New LineCode.750_CLP_3PH_12KV_3 nphases=3 units=km Rmatrix=[ 0.031984 | 0 0.031984 | 0 0 0.031984 ] Xmatrix=[ 0.039281 | 0 0.039281 | 0 0 0.039281 ] Cmatrix=[ 0 | 0 0 | 0 0 0 ]
New LineCode.2_CIC_1PH_12KV_1 nphases=1 units=km Rmatrix=[ 0.001001 ] Xmatrix=[ 0.000211 ] Cmatrix=[ 0 ]
New LineCode.1/0_JCN_1PH_12KV_1 nphases=1 units=km Rmatrix=[ 0.072156 ] Xmatrix=[ 0.022054 ] Cmatrix=[ 0 ]
New LineCode.336_ACSR_3PH_12KV_3 nphases=3 units=km Rmatrix=[ 0.016693 | 0 0.016693 | 0 0 0.016693 ] Xmatrix=[ 0.037381 | 0 0.037381 | 0 0 0.037381 ] Cmatrix=[ 0 | 0 0 | 0 0 0 ]
New LineCode.336_ACSR_3PH_336_ACSR_N_12KV_4 nphases=4 units=km Rmatrix=[ 0.017208 | 0 0.017208 | 0 0 0.017208 | 0 0 0 0.017208 ] Xmatrix=[ 0.034316 | 0 0.034316 | 0 0 0.034316 | 0 0 0 0.034316 ] Cmatrix=[ 0 | 0 0 | 0 0 0 | 0 0 0 0 ]
New LineCode.1/0_ACSR_3PH_1/0_ACSR_N_12KV_4 nphases=4 units=km Rmatrix=[ 0.021279 | 0 0.021279 | 0 0 0.021279 | 0 0 0 0.021279 ] Xmatrix=[ 0.015378 | 0 0.015378 | 0 0 0.015378 | 0 0 0 0.015378 ] Cmatrix=[ 0 | 0 0 | 0 0 0 | 0 0 0 0 ]

! Lines
New Line.GS6188-3$ND100066183 phases=3 Bus1=100065692.1.2.3 Bus2=100066183.1.2.3 LineCode=1000_CLP_3PH_12KV_3 Length=2.42165 units=km
New Line.GS6188-1$GS6174-3 phases=3 Bus1=100065676.1.2.3 Bus2=99387216.1.2.3 LineCode=1000_CLP_3PH_12KV_3 Length=0.047282 units=km
New Line.ND100066183$GS4007-1 phases=3 Bus1=100066183.1.2.3 Bus2=44856037.1.2.3 LineCode=1000_CLP_3PH_12KV_3 Length=0.19236 units=km
New Line.GS6181-3$ND100066183 phases=3 Bus1=100066183.1.2.3 Bus2=99388019.1.2.3 LineCode=1000_CLP_3PH_12KV_3 Length=0.036559 units=km
New Line.GS4007-3$4386755E phases=3 Bus1=44856053.1.2.3 Bus2=53298260.1.2.3 LineCode=1000_CLP_3PH_12KV_3 Length=0.016275 units=km
New Line.PME2950-2$4213924E phases=3 Bus1=53298920.1.2.3 Bus2=53363755.1.2.3 LineCode=350_CLP_3PH_12KV_3 Length=0.202408 units=km
New Line.PME2950-3$ND98784890 phases=3 Bus1=53363737.1.2.3 Bus2=98784890.1.2.3 LineCode=2_CLP_3PH_12KV_3 Length=0.008236 units=km
New Line.PME2950-1$PME2948-1 phases=3 Bus1=53363764.1.2.3 Bus2=53348591.1.2.3 LineCode=350_JCN_3PH_12KV_3 Length=0.731007 units=km
New Line.ND98784890$P5470316T1 phases=1 Bus1=98784890.1 Bus2=53382632.1 LineCode=2_CLP_1PH_12KV_1 Length=0.000523 units=km
New Line.ND98784890$98786617 phases=3 Bus1=98784890.1.2.3 Bus2=98786619.1.2.3 LineCode=2_CLP_3PH_12KV_3 Length=0.186195 units=km
New Line.98786617$ND98785350 phases=3 Bus1=98786620.1.2.3 Bus2=98785350.1.2.3 LineCode=2_CLP_3PH_12KV_3 Length=0.005996 units=km
New Line.PME2948-4$ND98498011 phases=3 Bus1=53348573.1.2.3 Bus2=98498011.1.2.3 LineCode=2_CLP_3PH_12KV_3 Length=0.34622 units=km
New Line.ND98785350$ND98785374 phases=2 Bus1=98785350.2.3 Bus2=98785374.2.3 LineCode=2_CLP_2PH_12KV_2 Length=0.046416 units=km
New Line.ND98785350$98786575 phases=3 Bus1=98785350.1.2.3 Bus2=98786578.1.2.3 LineCode=2_CLP_3PH_12KV_3 Length=0.01037 units=km
New Line.ND98498011$P5470313-1 phases=1 Bus1=98498011.1 Bus2=53348486.1 LineCode=2_CLP_1PH_12KV_1 Length=0.069519 units=km
New Line.PME2948-2$PMH2947-1 phases=3 Bus1=53348582.1.2.3 Bus2=53361960.1.2.3 LineCode=350_CLP_3PH_12KV_3 Length=0.1751 units=km
New Line.PME2948-3$ND53406625 phases=2 Bus1=53348564.2.3 Bus2=53406625.2.3 LineCode=1/0_CLP_2PH_12KV_2 Length=0.009417 units=km
New Line.ND98498011$98498351 phases=1 Bus1=98498011.3 Bus2=98498353.3 LineCode=2_CLP_1PH_12KV_1 Length=0.161879 units=km
New Line.ND98785374$98786647 phases=1 Bus1=98785374.2 Bus2=98786649.2 LineCode=2_CLP_1PH_12KV_1 Length=0.075618 units=km
New Line.ND98785374$98786722 phases=2 Bus1=98785374.2.3 Bus2=98786725.2.3 LineCode=2_CLP_2PH_12KV_2 Length=0.01087 units=km
New Line.ND53406625$P5468994T1 phases=1 Bus1=53406625.3 Bus2=53382636.3 LineCode=1/0_CLP_1PH_12KV_1 Length=0.003169 units=km
New Line.ND98499559$ND53406625 phases=2 Bus1=53406625.2.3 Bus2=98499559.2.3 LineCode=2_CLP_2PH_12KV_2 Length=0.300813 units=km
New Line.98786575$ND98785288 phases=3 Bus1=98786577.1.2.3 Bus2=98785288.1.2.3 LineCode=2_CLP_3PH_12KV_3 Length=0.243907 units=km
New Line.98498351$P5481634-1 phases=1 Bus1=98498354.3 Bus2=53347200.3 LineCode=2_CLP_1PH_12KV_1 Length=0.00109 units=km
New Line.98786647$P5465456-1 phases=1 Bus1=98786650.2 Bus2=53365182.2 LineCode=2_CLP_1PH_12KV_1 Length=0.000725 units=km
New Line.ND98499559$ND98499553 phases=1 Bus1=98499559.2 Bus2=98499553.2 LineCode=2_CLP_1PH_12KV_1 Length=0.100903 units=km
New Line.ND98785288$98786273 phases=1 Bus1=98785288.1 Bus2=98786275.1 LineCode=2_CLP_1PH_12KV_1 Length=0.034984 units=km
New Line.ND98785288$98786350 phases=1 Bus1=98785288.1 Bus2=98786352.1 LineCode=2_CLP_1PH_12KV_1 Length=0.091768 units=km
New Line.98786722$98786747 phases=2 Bus1=98786724.2.3 Bus2=98786749.2.3 LineCode=2_CLP_2PH_12KV_2 Length=0.165593 units=km
New Line.ND98499559$ND98787295 phases=2 Bus1=98499559.2.3 Bus2=98787295.2.3 LineCode=2_CLP_2PH_12KV_2 Length=0.031813 units=km
New Line.PME2947-4$ND246871476 phases=3 Bus1=53361942.1.2.3 Bus2=246871476.1.2.3 LineCode=1/0_JCN_3PH_12KV_3 Length=0.006461 units=km
New Line.ND98499553$P5477970-2 phases=1 Bus1=98499553.2 Bus2=53319879.2 LineCode=2_CLP_1PH_12KV_1 Length=0.188315 units=km
New Line.ND98787295$ND98499343 phases=2 Bus1=98787295.2.3 Bus2=98499343.2.3 LineCode=2_CLP_2PH_12KV_2 Length=0.005871 units=km
New Line.ND98499553$98499977 phases=1 Bus1=98499553.2 Bus2=98499979.2 LineCode=2_CLP_1PH_12KV_1 Length=0.023893 units=km
New Line.ND98787282$ND98787295 phases=1 Bus1=98787295.2 Bus2=98787282.2 LineCode=2_CLP_1PH_12KV_1 Length=0.038738 units=km
New Line.ND246871476$ND246871467 phases=3 Bus1=246871476.1.2.3 Bus2=246871467.1.2.3 LineCode=1/0_JCN_3PH_12KV_3 Length=0.072174 units=km
New Line.98786350$P5481272-1 phases=1 Bus1=98786353.1 Bus2=53346563.1 LineCode=2_CLP_1PH_12KV_1 Length=0.001117 units=km
New Line.98786273$P5474780-2 phases=1 Bus1=98786276.1 Bus2=53347513.1 LineCode=2_CLP_1PH_12KV_1 Length=0.000334 units=km
New Line.PME2947-2$PMH2946-1 phases=3 Bus1=53361951.1.2.3 Bus2=53362143.1.2.3 LineCode=350_CLP_3PH_12KV_3 Length=0.430918 units=km
New Line.ND246871476$P5468988T1 phases=3 Bus1=246871476.1.2.3 Bus2=53382628.1.2.3 LineCode=1/0_JCN_3PH_12KV_3 Length=0.013044 units=km
New Line.ND98499343$98499594 phases=1 Bus1=98499343.3 Bus2=98499596.3 LineCode=2_CLP_1PH_12KV_1 Length=0.080657 units=km
New Line.ND98499343$98499725 phases=1 Bus1=98499343.3 Bus2=98499727.3 LineCode=2_CLP_1PH_12KV_1 Length=0.06955 units=km
New Line.ND98787282$98499750 phases=1 Bus1=98787282.2 Bus2=98499752.2 LineCode=2_CLP_1PH_12KV_1 Length=0.298274 units=km
New Line.98786747$ND98785424 phases=2 Bus1=98786750.2.3 Bus2=98785424.2.3 LineCode=2_CLP_2PH_12KV_2 Length=0.007185 units=km
New Line.PMH2947-3$98785977 phases=3 Bus1=53361933.1.2.3 Bus2=98785979.1.2.3 LineCode=1/0_CLP_3PH_12KV_3 Length=0.215972 units=km
New Line.P5476497-1$ND246871467 phases=3 Bus1=246871467.1.2.3 Bus2=53347272.1.2.3 LineCode=1/0_CLP_3PH_12KV_3 Length=0.113419 units=km
New Line.98499977$P5470311-2 phases=1 Bus1=98499980.2 Bus2=53347339.2 LineCode=2_CLP_1PH_12KV_1 Length=0.000663 units=km
New Line.ND246871467$ND53406059 phases=3 Bus1=246871467.1.2.3 Bus2=53406059.1.2.3 LineCode=1/0_CLP_3PH_12KV_3 Length=0.11086 units=km
New Line.P5481634-2$ND98498064 phases=1 Bus1=53347209.3 Bus2=98498064.3 LineCode=2_CLP_1PH_12KV_1 Length=0.088173 units=km
New Line.P5465456-2$98786672 phases=1 Bus1=53365191.2 Bus2=98786675.2 LineCode=2_CLP_1PH_12KV_1 Length=0.000528 units=km
New Line.ND98785424$98786777 phases=2 Bus1=98785424.2.3 Bus2=98786780.2.3 LineCode=2_CLP_2PH_12KV_2 Length=0.008938 units=km
New Line.ND98785424$98786802 phases=1 Bus1=98785424.2 Bus2=98786804.2 LineCode=2_CLP_1PH_12KV_1 Length=0.011945 units=km
New Line.ND98785424$98786832 phases=1 Bus1=98785424.2 Bus2=98786834.2 LineCode=2_CLP_1PH_12KV_1 Length=0.067089 units=km
New Line.98499725$P5485366-1 phases=1 Bus1=98499728.3 Bus2=53345939.3 LineCode=2_CLP_1PH_12KV_1 Length=0.001549 units=km
New Line.ND98498064$ND98498046 phases=1 Bus1=98498064.3 Bus2=98498046.3 LineCode=2_CLP_1PH_12KV_1 Length=0.068138 units=km
New Line.ND98498064$98498378 phases=1 Bus1=98498064.3 Bus2=98498381.3 LineCode=2_CLP_1PH_12KV_1 Length=0.000473 units=km
New Line.98499594$ND98499374 phases=1 Bus1=98499597.3 Bus2=98499374.3 LineCode=2_CLP_1PH_12KV_1 Length=0.001029 units=km
New Line.98499750$ND98499492 phases=1 Bus1=98499753.2 Bus2=98499492.2 LineCode=2_CLP_1PH_12KV_1 Length=0.000189 units=km
New Line.ND53406059$ND98785167 phases=3 Bus1=53406059.1.2.3 Bus2=98785167.1.2.3 LineCode=1/0_CLP_3PH_12KV_3 Length=0.215972 units=km
New Line.98785977$ND98785202 phases=3 Bus1=98785980.1.2.3 Bus2=98785202.1.2.3 LineCode=1/0_CLP_3PH_12KV_3 Length=0.005688 units=km
New Line.ND98498046$180704409 phases=1 Bus1=98498046.3 Bus2=180704411.3 LineCode=2_CLP_1PH_12KV_1 Length=0.100431 units=km
New Line.98786802$P5494542-1 phases=1 Bus1=98786805.2 Bus2=53320569.2 LineCode=2_CLP_1PH_12KV_1 Length=0.00075 units=km
New Line.ND98499492$P5485372-1 phases=1 Bus1=98499492.2 Bus2=53345693.2 LineCode=2_CLP_1PH_12KV_1 Length=0.008892 units=km
New Line.ND98499374$P5485368-2 phases=1 Bus1=98499374.3 Bus2=53346040.3 LineCode=2_CLP_1PH_12KV_1 Length=0.004359 units=km
New Line.98786832$P5465458-1 phases=1 Bus1=98786835.2 Bus2=53365090.2 LineCode=2_CLP_1PH_12KV_1 Length=0.002091 units=km
New Line.ND98498046$P5488577-1 phases=1 Bus1=98498046.3 Bus2=53381698.3 LineCode=2_CLP_1PH_12KV_1 Length=0.05773 units=km
New Line.PMH2946-4$ND98497304 phases=3 Bus1=53362125.1.2.3 Bus2=98497304.1.2.3 LineCode=2_CLP_3PH_12KV_3 Length=0.009273 units=km
New Line.ND98499374$98499700 phases=1 Bus1=98499374.3 Bus2=98499702.3 LineCode=2_CLP_1PH_12KV_1 Length=0.102951 units=km
New Line.ND98499492$98499802 phases=1 Bus1=98499492.2 Bus2=98499804.2 LineCode=2_CLP_1PH_12KV_1 Length=0.09006 units=km
New Line.ND98785167$ND98785185 phases=3 Bus1=98785167.1.2.3 Bus2=98785185.1.2.3 LineCode=1/0_CLP_3PH_12KV_3 Length=0.00414 units=km
New Line.ND98785202$98786007 phases=3 Bus1=98785202.1.2.3 Bus2=98786010.1.2.3 LineCode=1/0_CLP_3PH_12KV_3 Length=0.02412 units=km
New Line.ND98785202$98786042 phases=1 Bus1=98785202.3 Bus2=98786044.3 LineCode=2_CLP_1PH_12KV_1 Length=0.193969 units=km
New Line.P5474780-1$98786300 phases=1 Bus1=53347504.1 Bus2=98786303.1 LineCode=2_CLP_1PH_12KV_1 Length=0.000709 units=km
New Line.P5481272-2$98786375 phases=1 Bus1=53346572.1 Bus2=98786378.1 LineCode=2_CLP_1PH_12KV_1 Length=0.000916 units=km
New Line.98786672$98786697 phases=1 Bus1=98786674.2 Bus2=98786699.2 LineCode=2_CLP_1PH_12KV_1 Length=0.09312 units=km
New Line.98786777$98786957 phases=2 Bus1=98786779.2.3 Bus2=98786959.2.3 LineCode=2_CLP_2PH_12KV_2 Length=0.136696 units=km
New Line.PMH2946-2$PME2932-4 phases=3 Bus1=53362134.1.2.3 Bus2=53363929.1.2.3 LineCode=350_CLP_3PH_12KV_3 Length=0.303057 units=km
New Line.P5470311-1$P5465486-2 phases=1 Bus1=53347330.2 Bus2=53381779.2 LineCode=2_CLP_1PH_12KV_1 Length=0.014551 units=km
New Line.53382572$ND98785185 phases=3 Bus1=98785185.1.2.3 Bus2=53382574.1.2.3 LineCode=1/0_CLP_3PH_12KV_3 Length=0.060628 units=km
New Line.PMH2946-3$ND53406480 phases=3 Bus1=53362116.1.2.3 Bus2=53406480.1.2.3 LineCode=1/0_CLP_3PH_12KV_3 Length=0.008377 units=km
New Line.ND98785185$ND53407864 phases=3 Bus1=98785185.1.2.3 Bus2=53407864.1.2.3 LineCode=1/0_CLP_3PH_12KV_3 Length=0.173774 units=km
New Line.ND98497304$ND98497151 phases=3 Bus1=98497304.1.2.3 Bus2=98497151.1.2.3 LineCode=2_CLP_3PH_12KV_3 Length=0.004885 units=km
New Line.ND98497304$98497758 phases=1 Bus1=98497304.3 Bus2=98497760.3 LineCode=2_CLP_1PH_12KV_1 Length=0.250017 units=km
New Line.98498378$ND98498082 phases=1 Bus1=98498380.3 Bus2=98498082.3 LineCode=2_CLP_1PH_12KV_1 Length=0.022272 units=km
New Line.ND53407864$147790749 phases=3 Bus1=53407864.1.2.3 Bus2=147790751.1.2.3 LineCode=2_CLP_3PH_12KV_3 Length=0.284646 units=km
New Line.98499802$P5485373-2 phases=1 Bus1=98499805.2 Bus2=53345610.2 LineCode=2_CLP_1PH_12KV_1 Length=0.001238 units=km
New Line.98499700$P5485367-1 phases=1 Bus1=98499703.3 Bus2=53345857.3 LineCode=2_CLP_1PH_12KV_1 Length=0.000789 units=km
New Line.98786042$P5474778-1 phases=1 Bus1=98786045.3 Bus2=53347596.3 LineCode=2_CLP_1PH_12KV_1 Length=0.012168 units=km
New Line.98786697$P5465457-1 phases=1 Bus1=98786700.2 Bus2=53365264.2 LineCode=2_CLP_1PH_12KV_1 Length=0.000583 units=km
New Line.ND98498082$P5487759-2 phases=1 Bus1=98498082.3 Bus2=53381491.3 LineCode=2_CLP_1PH_12KV_1 Length=0.244037 units=km
New Line.ND98498082$P5488579-1 phases=1 Bus1=98498082.3 Bus2=53381554.3 LineCode=2_CLP_1PH_12KV_1 Length=0.06279 units=km
New Line.180704409$P5488578-2 phases=1 Bus1=180704412.3 Bus2=53381635.3 LineCode=2_CLP_1PH_12KV_1 Length=0.001478 units=km
New Line.ND53406480$P5468986T1 phases=3 Bus1=53406480.1.2.3 Bus2=53382446.1.2.3 LineCode=1/0_CLP_3PH_12KV_3 Length=0.004772 units=km
New Line.98786007$53382464 phases=3 Bus1=98786009.1.2.3 Bus2=53382466.1.2.3 LineCode=1/0_CLP_3PH_12KV_3 Length=0.173774 units=km
New Line.ND53407864$53382474 phases=3 Bus1=53407864.1.2.3 Bus2=53382476.1.2.3 LineCode=2_CLP_3PH_12KV_3 Length=0.062729 units=km
New Line.ND53406480$ND53407318 phases=3 Bus1=53406480.1.2.3 Bus2=53407318.1.2.3 LineCode=2_CLP_3PH_12KV_3 Length=0.024616 units=km
New Line.ND98497151$ND98497128 phases=3 Bus1=98497151.1.2.3 Bus2=98497128.1.2.3 LineCode=2_CLP_3PH_12KV_3 Length=0.006106 units=km
New Line.ND98497151$98497331 phases=1 Bus1=98497151.1 Bus2=98497333.1 LineCode=2_CLP_1PH_12KV_1 Length=0.127607 units=km
New Line.98786957$ND98785344 phases=2 Bus1=98786960.2.3 Bus2=98785344.2.3 LineCode=2_CLP_2PH_12KV_2 Length=0.010176 units=km
New Line.98786300$98786325 phases=1 Bus1=98786302.1 Bus2=98786327.1 LineCode=2_CLP_1PH_12KV_1 Length=0.097128 units=km
New Line.98786375$98786400 phases=1 Bus1=98786377.1 Bus2=98786402.1 LineCode=2_CLP_1PH_12KV_1 Length=0.077048 units=km
New Line.98497758$P5490077-2 phases=1 Bus1=98497761.3 Bus2=53321854.3 LineCode=2_CLP_1PH_12KV_1 Length=0.001285 units=km
New Line.53382572$P5476878 phases=3 Bus1=53382575.1.2.3 Bus2=53322419.1.2.3 LineCode=1/0_CLP_3PH_12KV_3 Length=0.003974 units=km
New Line.ND53407318$ND98496374 phases=3 Bus1=53407318.1.2.3 Bus2=98496374.1.2.3 LineCode=2_CLP_3PH_12KV_3 Length=0.014943 units=km
New Line.ND98497128$ND98497212 phases=2 Bus1=98497128.2.3 Bus2=98497212.2.3 LineCode=2_CLP_2PH_12KV_2 Length=0.056357 units=km
New Line.ND53407318$98498122 phases=1 Bus1=53407318.1 Bus2=98498124.1 LineCode=2_CLP_1PH_12KV_1 Length=0.214269 units=km
New Line.P5485368-1$98499625 phases=1 Bus1=53346031.3 Bus2=98499628.3 LineCode=2_CLP_1PH_12KV_1 Length=0.001018 units=km
New Line.P5485372-2$98499777 phases=1 Bus1=53345702.2 Bus2=98499780.2 LineCode=2_CLP_1PH_12KV_1 Length=0.000822 units=km
New Line.P5465458-2$98786857 phases=1 Bus1=53365099.2 Bus2=98786860.2 LineCode=2_CLP_1PH_12KV_1 Length=0.004537 units=km
New Line.ND98785344$98786984 phases=1 Bus1=98785344.3 Bus2=98786987.3 LineCode=2_CLP_1PH_12KV_1 Length=0.007665 units=km
New Line.ND98785344$98787009 phases=1 Bus1=98785344.3 Bus2=98787011.3 LineCode=2_CLP_1PH_12KV_1 Length=0.022379 units=km
New Line.53382474$PME4023-4 phases=3 Bus1=53382477.1.2.3 Bus2=53321000.1.2.3 LineCode=2_CLP_3PH_12KV_3 Length=0.000241 units=km
New Line.98786400$P5481273-1 phases=1 Bus1=98786403.1 Bus2=53346471.1 LineCode=2_CLP_1PH_12KV_1 Length=0.000877 units=km
New Line.98786325$P5474781-2 phases=1 Bus1=98786328.1 Bus2=53347421.1 LineCode=2_CLP_1PH_12KV_1 Length=0.000679 units=km
New Line.98497331$P5474768-1 phases=1 Bus1=98497334.1 Bus2=53347964.1 LineCode=2_CLP_1PH_12KV_1 Length=0.001038 units=km
New Line.147790749$PME2954-4 phases=3 Bus1=147790752.1.2.3 Bus2=53361716.1.2.3 LineCode=2_CLP_3PH_12KV_3 Length=0.003913 units=km
New Line.53382464$ND53406401 phases=3 Bus1=53382467.1.2.3 Bus2=53406401.1.2.3 LineCode=1/0_CLP_3PH_12KV_3 Length=0.002734 units=km
New Line.ND98496374$ND98496449 phases=3 Bus1=98496374.1.2.3 Bus2=98496449.1.2.3 LineCode=2_CLP_3PH_12KV_3 Length=0.006055 units=km
New Line.ND98497212$ND98497135 phases=2 Bus1=98497212.2.3 Bus2=98497135.2.3 LineCode=2_CLP_2PH_12KV_2 Length=0.077485 units=km
New Line.ND98497212$98497533 phases=1 Bus1=98497212.2 Bus2=98497535.2 LineCode=2_CLP_1PH_12KV_1 Length=0.11358 units=km
New Line.PME2932-3$ND149120303 phases=3 Bus1=53363920.1.2.3 Bus2=149120303.1.2.3 LineCode=350_CLP_3PH_12KV_3 Length=0.292152 units=km
New Line.ND53406401$171339247 phases=1 Bus1=53406401.1 Bus2=171339249.1 LineCode=2_CLP_1PH_12KV_1 Length=0.022289 units=km
New Line.98787009$P5494540-1 phases=1 Bus1=98787012.3 Bus2=53320651.3 LineCode=2_CLP_1PH_12KV_1 Length=0.000573 units=km
New Line.98498122$P5481638-1 phases=1 Bus1=98498125.1 Bus2=53346832.1 LineCode=2_CLP_1PH_12KV_1 Length=0.002474 units=km
New Line.ND53406401$53382454 phases=2 Bus1=53406401.2.3 Bus2=53382457.2.3 LineCode=1/0_CLP_2PH_12KV_2 Length=0.002472 units=km
New Line.PME2932-2$0154146 phases=3 Bus1=53363938.1.2.3 Bus2=53382568.1.2.3 LineCode=2_CLP_3PH_12KV_3 Length=0.008019 units=km
New Line.ND98496449$ND98496410 phases=1 Bus1=98496449.1 Bus2=98496410.1 LineCode=2_CLP_1PH_12KV_1 Length=0.009014 units=km
New Line.ND98496449$98496516 phases=1 Bus1=98496449.2 Bus2=98496518.2 LineCode=2_CLP_1PH_12KV_1 Length=0.139481 units=km
New Line.ND98497135$98497708 phases=1 Bus1=98497135.2 Bus2=98497710.2 LineCode=2_CLP_1PH_12KV_1 Length=0.172626 units=km
New Line.98499625$ND98499406 phases=1 Bus1=98499627.3 Bus2=98499406.3 LineCode=2_CLP_1PH_12KV_1 Length=0.040361 units=km
New Line.P5485373-1$ND98499521 phases=1 Bus1=53345601.2 Bus2=98499521.2 LineCode=2_CLP_1PH_12KV_1 Length=0.002319 units=km
New Line.98499777$98499952 phases=1 Bus1=98499779.2 Bus2=98499954.2 LineCode=2_CLP_1PH_12KV_1 Length=0.111631 units=km
New Line.P5474778-2$98786073 phases=1 Bus1=53347605.3 Bus2=98786076.3 LineCode=2_CLP_1PH_12KV_1 Length=0.000488 units=km
New Line.98786857$98786882 phases=1 Bus1=98786859.2 Bus2=98786884.2 LineCode=2_CLP_1PH_12KV_1 Length=0.107786 units=km
New Line.98786984$98787034 phases=1 Bus1=98786986.3 Bus2=98787036.3 LineCode=2_CLP_1PH_12KV_1 Length=0.07543 units=km
New Line.ND149120303$S5477364 phases=1 Bus1=149120303.3 Bus2=149120318.3 LineCode=2_CLP_1PH_12KV_1 Length=0.001375 units=km
New Line.ND98499406$ND178193077 phases=1 Bus1=98499406.3 Bus2=178193077.3 LineCode=2_CLP_1PH_12KV_1 Length=0.004988 units=km
New Line.98497533$P5487719-2 phases=1 Bus1=98497536.2 Bus2=53344392.2 LineCode=2_CLP_1PH_12KV_1 Length=0.00071 units=km
New Line.ND149120303$ND53406655 phases=3 Bus1=149120303.1.2.3 Bus2=53406655.1.2.3 LineCode=350_CLP_3PH_12KV_3 Length=0.089959 units=km
New Line.ND98496410$98496568 phases=1 Bus1=98496410.1 Bus2=98496570.1 LineCode=2_CLP_1PH_12KV_1 Length=0.252157 units=km
New Line.ND98496410$98496693 phases=1 Bus1=98496410.1 Bus2=98496695.1 LineCode=2_CLP_1PH_12KV_1 Length=0.372301 units=km
New Line.P5490077-1$98497783 phases=1 Bus1=53321845.3 Bus2=98497786.3 LineCode=2_CLP_1PH_12KV_1 Length=0.000879 units=km
New Line.ND98499406$98499675 phases=1 Bus1=98499406.3 Bus2=98499677.3 LineCode=2_CLP_1PH_12KV_1 Length=0.055544 units=km
New Line.ND98499521$98499827 phases=1 Bus1=98499521.2 Bus2=98499830.2 LineCode=2_CLP_1PH_12KV_1 Length=0.000901 units=km
New Line.ND98499521$98499877 phases=1 Bus1=98499521.2 Bus2=98499879.2 LineCode=2_CLP_1PH_12KV_1 Length=0.088122 units=km
New Line.98499952$P5486377-1 phases=1 Bus1=98499955.2 Bus2=53322265.2 LineCode=2_CLP_1PH_12KV_1 Length=0.001065 units=km
New Line.98497708$P5487722-1 phases=1 Bus1=98497711.2 Bus2=53322637.2 LineCode=2_CLP_1PH_12KV_1 Length=0.000815 units=km
New Line.98496516$P5481878-2 phases=1 Bus1=98496519.2 Bus2=53346749.2 LineCode=2_CLP_1PH_12KV_1 Length=0.000677 units=km
New Line.171339247$P5468992-2 phases=1 Bus1=171339250.1 Bus2=53361864.1 LineCode=2_CLP_1PH_12KV_1 Length=0.018347 units=km
New Line.98786882$P5465459-1 phases=1 Bus1=98786885.2 Bus2=53364998.2 LineCode=2_CLP_1PH_12KV_1 Length=0.006646 units=km
New Line.98787034$P5465461-2 phases=1 Bus1=98787037.3 Bus2=53365365.3 LineCode=2_CLP_1PH_12KV_1 Length=0.000682 units=km
New Line.ND53406655$ND53406656 phases=3 Bus1=53406655.1.2.3 Bus2=53406656.1.2.3 LineCode=750_CLP_3PH_12KV_3 Length=0.283892 units=km
New Line.53382454$ND98469756 phases=2 Bus1=53382456.2.3 Bus2=98469756.2.3 LineCode=1/0_CLP_2PH_12KV_2 Length=0.261233 units=km
New Line.PME2954-2$ND98469802 phases=1 Bus1=53361726.2 Bus2=98469802.2 LineCode=2_CLP_1PH_12KV_1 Length=0.426195 units=km
New Line.P5474768-2$98497358 phases=1 Bus1=53347973.1 Bus2=98497361.1 LineCode=2_CLP_1PH_12KV_1 Length=0.000784 units=km
New Line.ND178193077$98499650 phases=1 Bus1=178193077.3 Bus2=98499652.3 LineCode=2_CLP_1PH_12KV_1 Length=0.101422 units=km
New Line.PME4023-2$ND98785033 phases=1 Bus1=53321010.2 Bus2=98785033.2 LineCode=2_CLP_1PH_12KV_1 Length=0.176304 units=km
New Line.98786073$98786098 phases=1 Bus1=98786075.3 Bus2=98786100.3 LineCode=2_CLP_1PH_12KV_1 Length=0.111526 units=km
New Line.P5481273-2$98786425 phases=1 Bus1=53346480.1 Bus2=98786428.1 LineCode=2_CLP_1PH_12KV_1 Length=0.00053 units=km
New Line.ND53406656$ND175307263 phases=3 Bus1=53406656.1.2.3 Bus2=175307263.1.2.3 LineCode=350_CLP_3PH_12KV_3 Length=0.204926 units=km
New Line.98496693$P5487966-2 phases=1 Bus1=98496696.1 Bus2=53344740.1 LineCode=2_CLP_1PH_12KV_1 Length=0.000579 units=km
New Line.98496568$P5487964-2 phases=1 Bus1=98496571.1 Bus2=53345170.1 LineCode=2_CLP_1PH_12KV_1 Length=0.001045 units=km
New Line.98499877$P5485374-2 phases=1 Bus1=98499880.2 Bus2=53345436.2 LineCode=2_CLP_1PH_12KV_1 Length=0.000939 units=km
New Line.98499675$P5485371-1 phases=1 Bus1=98499678.3 Bus2=53345775.3 LineCode=2_CLP_1PH_12KV_1 Length=0.000575 units=km
New Line.ND98469756$P5468993-2 phases=1 Bus1=98469756.2 Bus2=53361642.2 LineCode=1/0_CLP_1PH_12KV_1 Length=0.004395 units=km
New Line.ND53406656$PME4006-2 phases=3 Bus1=53406656.1.2.3 Bus2=55020758.1.2.3 LineCode=750_CLP_3PH_12KV_3 Length=0.011949 units=km
New Line.ND98469756$ND98469739 phases=2 Bus1=98469756.2.3 Bus2=98469739.2.3 LineCode=2_CLP_2PH_12KV_2 Length=0.040319 units=km
New Line.PME2954-1$98469996 phases=1 Bus1=53361744.1 Bus2=98469998.1 LineCode=2_CLP_1PH_12KV_1 Length=0.137001 units=km
New Line.98497783$98497808 phases=1 Bus1=98497785.3 Bus2=98497810.3 LineCode=2_CLP_1PH_12KV_1 Length=0.108319 units=km
New Line.P5481638-2$98498149 phases=1 Bus1=53346841.1 Bus2=98498152.1 LineCode=2_CLP_1PH_12KV_1 Length=0.002392 units=km
New Line.98499827$98499852 phases=1 Bus1=98499829.2 Bus2=98499854.2 LineCode=2_CLP_1PH_12KV_1 Length=0.087911 units=km
New Line.ND98469802$98784224 phases=1 Bus1=98469802.2 Bus2=98784226.2 LineCode=2_CLP_1PH_12KV_1 Length=0.085217 units=km
New Line.ND98469802$98784299 phases=1 Bus1=98469802.2 Bus2=98784301.2 LineCode=2_CLP_1PH_12KV_1 Length=0.153217 units=km
New Line.PME2954-3$98784399 phases=1 Bus1=53361735.3 Bus2=98784401.3 LineCode=2_CLP_1PH_12KV_1 Length=0.067232 units=km
New Line.PME4023-1$98785498 phases=1 Bus1=53321028.1 Bus2=98785501.1 LineCode=2_CLP_1PH_12KV_1 Length=0.000582 units=km
New Line.PME4023-3$98785525 phases=1 Bus1=53321019.3 Bus2=98785527.3 LineCode=2_CLP_1PH_12KV_1 Length=0.132929 units=km
New Line.ND98785033$98785602 phases=1 Bus1=98785033.2 Bus2=98785604.2 LineCode=2_CLP_1PH_12KV_1 Length=0.142144 units=km
New Line.ND98785033$98785627 phases=1 Bus1=98785033.2 Bus2=98785629.2 LineCode=2_CLP_1PH_12KV_1 Length=0.07533 units=km
New Line.ND175307263$S5493770 phases=1 Bus1=175307263.3 Bus2=175307302.3 LineCode=2_CLP_1PH_12KV_1 Length=0.006854 units=km
New Line.ND175307263$ND175307328 phases=3 Bus1=175307263.1.2.3 Bus2=175307328.1.2.3 LineCode=2_CLP_3PH_12KV_3 Length=0.006567 units=km
New Line.98786098$P5490319-1 phases=1 Bus1=98786101.3 Bus2=53321671.3 LineCode=2_CLP_1PH_12KV_1 Length=0.000756 units=km
New Line.98499650$P5485370-2 phases=1 Bus1=98499653.3 Bus2=53346122.3 LineCode=2_CLP_1PH_12KV_1 Length=0.001242 units=km
New Line.ND98469739$ND53406264 phases=2 Bus1=98469739.2.3 Bus2=53406264.2.3 LineCode=2_CLP_2PH_12KV_2 Length=0.189464 units=km
New Line.98497358$98497383 phases=1 Bus1=98497360.1 Bus2=98497385.1 LineCode=2_CLP_1PH_12KV_1 Length=0.060411 units=km
New Line.P5487719-1$98497558 phases=1 Bus1=53344383.2 Bus2=98497561.2 LineCode=2_CLP_1PH_12KV_1 Length=0.001035 units=km
New Line.98786425$98786450 phases=1 Bus1=98786427.1 Bus2=98786452.1 LineCode=2_CLP_1PH_12KV_1 Length=0.076026 units=km
New Line.175307265$ND175307328 phases=3 Bus1=175307328.1.2.3 Bus2=175307267.1.2.3 LineCode=1/0_JCN_3PH_12KV_3 Length=0.028245 units=km
New Line.98497808$P5490076-2 phases=1 Bus1=98497811.3 Bus2=53321762.3 LineCode=2_CLP_1PH_12KV_1 Length=0.001144 units=km
New Line.98784399$P5489703-2 phases=1 Bus1=98784402.3 Bus2=53322192.3 LineCode=2_CLP_1PH_12KV_1 Length=0.000609 units=km
New Line.98784224$P5481592-1 phases=1 Bus1=98784227.2 Bus2=53345335.2 LineCode=2_CLP_1PH_12KV_1 Length=0.000698 units=km
New Line.98499852$P5485375-2 phases=1 Bus1=98499855.2 Bus2=53345518.2 LineCode=2_CLP_1PH_12KV_1 Length=0.001075 units=km
New Line.98784299$P5479081-2 phases=1 Bus1=98784302.2 Bus2=53348147.2 LineCode=2_CLP_1PH_12KV_1 Length=0.001348 units=km
New Line.98469996$P5479076-1 phases=1 Bus1=98469999.1 Bus2=53348404.1 LineCode=2_CLP_1PH_12KV_1 Length=0.001039 units=km
New Line.98785602$P5494989-2 phases=1 Bus1=98785605.2 Bus2=53364124.2 LineCode=2_CLP_1PH_12KV_1 Length=0.003921 units=km
New Line.98785627$P5494990-1 phases=1 Bus1=98785630.2 Bus2=53364299.2 LineCode=2_CLP_1PH_12KV_1 Length=0.000795 units=km
New Line.98785525$P5494986-2 phases=1 Bus1=98785528.3 Bus2=53364403.3 LineCode=2_CLP_1PH_12KV_1 Length=0.001795 units=km
New Line.ND175307328$PME5159-4 phases=3 Bus1=175307328.1.2.3 Bus2=53379869.1.2.3 LineCode=2_CLP_3PH_12KV_3 Length=0.051861 units=km
New Line.ND53406264$83966996 phases=1 Bus1=53406264.2 Bus2=83966998.2 LineCode=2_CLP_1PH_12KV_1 Length=0.069502 units=km
New Line.ND53406264$83967046 phases=1 Bus1=53406264.3 Bus2=83967048.3 LineCode=2_CLP_1PH_12KV_1 Length=0.101469 units=km
New Line.P5481878-1$98496543 phases=1 Bus1=53346740.2 Bus2=98496546.2 LineCode=2_CLP_1PH_12KV_1 Length=0.001104 units=km
...

! Switches
New Line.SABINO$CROWNHILL_GS4007-2$GS4007-2 phases=3 Bus1=44856045.1.2.3 Bus2=-77777744856045.1.2.3 switch=y r1=0.001 x1=0.001 r0=0.001 x0=0.001 Length=0.001 units=km
New Line.SABINO$SERNA_4386755ET1$4386755ET1 phases=3 Bus1=53382737.1.2.3 Bus2=-77777753382737.1.2.3 switch=y r1=0.001 x1=0.001 r0=0.001 x0=0.001 Length=0.001 units=km
New Line.SABINO$ROMERO_PS2124$PS2124 phases=3 Bus1=100067229.1.2.3 Bus2=-777777100067229.1.2.3 switch=y r1=0.001 x1=0.001 r0=0.001 x0=0.001 Length=0.001 units=km
New Line.SABINO$CROWNHILL_PME2950-4$PME2950-4 phases=3 Bus1=53363746.1.2.3 Bus2=-77777753363746.1.2.3 switch=y r1=0.001 x1=0.001 r0=0.001 x0=0.001 Length=0.001 units=km
New Line.SABINO$MERLOT_PME2932-1$PME2932-1 phases=3 Bus1=53363947.1.2.3 Bus2=-77777753363947.1.2.3 switch=y r1=0.001 x1=0.001 r0=0.001 x0=0.001 Length=0.001 units=km
New Line.100065674$100065682 phases=3 Bus1=100065663.1.2.3 Bus2=100065662.1.2.3 switch=y r1=0.001 x1=0.001 r0=0.001 x0=0.001 Length=0.001 units=km
New Line.100065682$100065690 phases=3 Bus1=100065663.1.2.3 Bus2=100065669.1.2.3 switch=y r1=0.001 x1=0.001 r0=0.001 x0=0.001 Length=0.001 units=km
New Line.44856035$44856043 phases=3 Bus1=44856023.1.2.3 Bus2=44856024.1.2.3 switch=y r1=0.001 x1=0.001 r0=0.001 x0=0.001 Length=0.001 units=km
New Line.44856043$44856051 phases=3 Bus1=44856024.1.2.3 Bus2=44856030.1.2.3 switch=y r1=0.001 x1=0.001 r0=0.001 x0=0.001 Length=0.001 units=km
New Line.98786617 phases=3 Bus1=98786619.1.2.3 Bus2=98786620.1.2.3 switch=y r1=0.001 x1=0.001 r0=0.001 x0=0.001 Length=0.001 units=km
New Line.PME2948-4$PME2948-3 phases=3 Bus1=53348555.1.2.3 Bus2=53348556.1.2.3 switch=y r1=0.001 x1=0.001 r0=0.001 x0=0.001 Length=0.001 units=km
New Line.98786575 phases=3 Bus1=98786578.1.2.3 Bus2=98786577.1.2.3 switch=y r1=0.001 x1=0.001 r0=0.001 x0=0.001 Length=0.001 units=km
New Line.98498351 phases=1 Bus1=98498353.3 Bus2=98498354.3 switch=y r1=0.001 x1=0.001 r0=0.001 x0=0.001 Length=0.001 units=km
New Line.98786647 phases=1 Bus1=98786649.2 Bus2=98786650.2 switch=y r1=0.001 x1=0.001 r0=0.001 x0=0.001 Length=0.001 units=km
New Line.98786722 phases=2 Bus1=98786725.2.3 Bus2=98786724.2.3 switch=y r1=0.001 x1=0.001 r0=0.001 x0=0.001 Length=0.001 units=km
New Line.98786273 phases=1 Bus1=98786275.1 Bus2=98786276.1 switch=y r1=0.001 x1=0.001 r0=0.001 x0=0.001 Length=0.001 units=km
New Line.98786350 phases=1 Bus1=98786352.1 Bus2=98786353.1 switch=y r1=0.001 x1=0.001 r0=0.001 x0=0.001 Length=0.001 units=km
New Line.98786747 phases=2 Bus1=98786749.2.3 Bus2=98786750.2.3 switch=y r1=0.001 x1=0.001 r0=0.001 x0=0.001 Length=0.001 units=km
New Line.98499977 phases=1 Bus1=98499979.2 Bus2=98499980.2 switch=y r1=0.001 x1=0.001 r0=0.001 x0=0.001 Length=0.001 units=km
New Line.98499594 phases=1 Bus1=98499596.3 Bus2=98499597.3 switch=y r1=0.001 x1=0.001 r0=0.001 x0=0.001 Length=0.001 units=km
New Line.98499725 phases=1 Bus1=98499727.3 Bus2=98499728.3 switch=y r1=0.001 x1=0.001 r0=0.001 x0=0.001 Length=0.001 units=km
New Line.98499750 phases=1 Bus1=98499752.2 Bus2=98499753.2 switch=y r1=0.001 x1=0.001 r0=0.001 x0=0.001 Length=0.001 units=km
New Line.98785977 phases=3 Bus1=98785979.1.2.3 Bus2=98785980.1.2.3 switch=y r1=0.001 x1=0.001 r0=0.001 x0=0.001 Length=0.001 units=km
New Line.5530099:GS6188-2 phases=3 Bus1=100065684.1.2.3 Bus2=100065663.1.2.3 switch=y r1=0.001 x1=0.001 r0=0.001 x0=0.001 Length=0.001 units=km
New Line.5530099:GS6188-1 phases=3 Bus1=100065662.1.2.3 Bus2=100065676.1.2.3 switch=y r1=0.001 x1=0.001 r0=0.001 x0=0.001 Length=0.001 units=km
New Line.5530099:GS6188-3 phases=3 Bus1=100065669.1.2.3 Bus2=100065692.1.2.3 switch=y r1=0.001 x1=0.001 r0=0.001 x0=0.001 Length=0.001 units=km
New Line.5428527:GS4007-1 phases=3 Bus1=44856037.1.2.3 Bus2=44856023.1.2.3 switch=y r1=0.001 x1=0.001 r0=0.001 x0=0.001 Length=0.001 units=km
New Line.5428527:GS4007-3 phases=3 Bus1=44856030.1.2.3 Bus2=44856053.1.2.3 switch=y r1=0.001 x1=0.001 r0=0.001 x0=0.001 Length=0.001 units=km
New Line.4213919E:PS0711 phases=3 Bus1=53382417.1.2.3 Bus2=53382418.1.2.3 switch=y r1=0.001 x1=0.001 r0=0.001 x0=0.001 Length=0.001 units=km
New Line.4249709E:PS2124 phases=3 Bus1=100067228.1.2.3 Bus2=100067229.1.2.3 switch=y r1=0.001 x1=0.001 r0=0.001 x0=0.001 Length=0.001 units=km enabled=false
New Line.5485372:P5485372-1 phases=1 Bus1=53345693.2 Bus2=53345694.2 switch=y r1=0.001 x1=0.001 r0=0.001 x0=0.001 Length=0.001 units=km
New Line.5465458:P5465458-1 phases=1 Bus1=53365090.2 Bus2=53365091.2 switch=y r1=0.001 x1=0.001 r0=0.001 x0=0.001 Length=0.001 units=km
New Line.5485372:P5485372-2 phases=1 Bus1=53345694.2 Bus2=53345702.2 switch=y r1=0.001 x1=0.001 r0=0.001 x0=0.001 Length=0.001 units=km
New Line.5465458:P5465458-2 phases=1 Bus1=53365091.2 Bus2=53365099.2 switch=y r1=0.001 x1=0.001 r0=0.001 x0=0.001 Length=0.001 units=km
New Line.98786672 phases=1 Bus1=98786675.2 Bus2=98786674.2 switch=y r1=0.001 x1=0.001 r0=0.001 x0=0.001 Length=0.001 units=km
New Line.98786777 phases=2 Bus1=98786780.2.3 Bus2=98786779.2.3 switch=y r1=0.001 x1=0.001 r0=0.001 x0=0.001 Length=0.001 units=km
New Line.98786802 phases=1 Bus1=98786804.2 Bus2=98786805.2 switch=y r1=0.001 x1=0.001 r0=0.001 x0=0.001 Length=0.001 units=km
New Line.98786832 phases=1 Bus1=98786834.2 Bus2=98786835.2 switch=y r1=0.001 x1=0.001 r0=0.001 x0=0.001 Length=0.001 units=km
New Line.98498378 phases=1 Bus1=98498381.3 Bus2=98498380.3 switch=y r1=0.001 x1=0.001 r0=0.001 x0=0.001 Length=0.001 units=km
New Line.180704409 phases=1 Bus1=180704411.3 Bus2=180704412.3 switch=y r1=0.001 x1=0.001 r0=0.001 x0=0.001 Length=0.001 units=km
New Line.98499700 phases=1 Bus1=98499702.3 Bus2=98499703.3 switch=y r1=0.001 x1=0.001 r0=0.001 x0=0.001 Length=0.001 units=km
New Line.98499802 phases=1 Bus1=98499804.2 Bus2=98499805.2 switch=y r1=0.001 x1=0.001 r0=0.001 x0=0.001 Length=0.001 units=km
New Line.98786007 phases=3 Bus1=98786010.1.2.3 Bus2=98786009.1.2.3 switch=y r1=0.001 x1=0.001 r0=0.001 x0=0.001 Length=0.001 units=km
New Line.98786042 phases=1 Bus1=98786044.3 Bus2=98786045.3 switch=y r1=0.001 x1=0.001 r0=0.001 x0=0.001 Length=0.001 units=km
New Line.98786300 phases=1 Bus1=98786303.1 Bus2=98786302.1 switch=y r1=0.001 x1=0.001 r0=0.001 x0=0.001 Length=0.001 units=km
New Line.98786375 phases=1 Bus1=98786378.1 Bus2=98786377.1 switch=y r1=0.001 x1=0.001 r0=0.001 x0=0.001 Length=0.001 units=km
New Line.98786697 phases=1 Bus1=98786699.2 Bus2=98786700.2 switch=y r1=0.001 x1=0.001 r0=0.001 x0=0.001 Length=0.001 units=km
New Line.98786957 phases=2 Bus1=98786959.2.3 Bus2=98786960.2.3 switch=y r1=0.001 x1=0.001 r0=0.001 x0=0.001 Length=0.001 units=km
New Line.53382572 phases=3 Bus1=53382574.1.2.3 Bus2=53382575.1.2.3 switch=y r1=0.001 x1=0.001 r0=0.001 x0=0.001 Length=0.001 units=km
New Line.98497758 phases=1 Bus1=98497760.3 Bus2=98497761.3 switch=y r1=0.001 x1=0.001 r0=0.001 x0=0.001 Length=0.001 units=km
New Line.147790749 phases=3 Bus1=147790751.1.2.3 Bus2=147790752.1.2.3 switch=y r1=0.001 x1=0.001 r0=0.001 x0=0.001 Length=0.001 units=km
New Line.53363945$53363936 phases=3 Bus1=53363911.1.2.3 Bus2=53363912.1.2.3 switch=y r1=0.001 x1=0.001 r0=0.001 x0=0.001 Length=0.001 units=km
New Line.53382464 phases=3 Bus1=53382466.1.2.3 Bus2=53382467.1.2.3 switch=y r1=0.001 x1=0.001 r0=0.001 x0=0.001 Length=0.001 units=km
New Line.53382474 phases=3 Bus1=53382476.1.2.3 Bus2=53382477.1.2.3 switch=y r1=0.001 x1=0.001 r0=0.001 x0=0.001 Length=0.001 units=km
New Line.98497331 phases=1 Bus1=98497333.1 Bus2=98497334.1 switch=y r1=0.001 x1=0.001 r0=0.001 x0=0.001 Length=0.001 units=km
New Line.98786325 phases=1 Bus1=98786327.1 Bus2=98786328.1 switch=y r1=0.001 x1=0.001 r0=0.001 x0=0.001 Length=0.001 units=km
New Line.98786400 phases=1 Bus1=98786402.1 Bus2=98786403.1 switch=y r1=0.001 x1=0.001 r0=0.001 x0=0.001 Length=0.001 units=km
New Line.98498122 phases=1 Bus1=98498124.1 Bus2=98498125.1 switch=y r1=0.001 x1=0.001 r0=0.001 x0=0.001 Length=0.001 units=km
New Line.98499625 phases=1 Bus1=98499628.3 Bus2=98499627.3 switch=y r1=0.001 x1=0.001 r0=0.001 x0=0.001 Length=0.001 units=km
New Line.98499777 phases=1 Bus1=98499780.2 Bus2=98499779.2 switch=y r1=0.001 x1=0.001 r0=0.001 x0=0.001 Length=0.001 units=km
New Line.98786857 phases=1 Bus1=98786860.2 Bus2=98786859.2 switch=y r1=0.001 x1=0.001 r0=0.001 x0=0.001 Length=0.001 units=km
New Line.98786984 phases=1 Bus1=98786987.3 Bus2=98786986.3 switch=y r1=0.001 x1=0.001 r0=0.001 x0=0.001 Length=0.001 units=km
New Line.98787009 phases=1 Bus1=98787011.3 Bus2=98787012.3 switch=y r1=0.001 x1=0.001 r0=0.001 x0=0.001 Length=0.001 units=km
New Line.98497533 phases=1 Bus1=98497535.2 Bus2=98497536.2 switch=y r1=0.001 x1=0.001 r0=0.001 x0=0.001 Length=0.001 units=km
New Line.171339247 phases=1 Bus1=171339249.1 Bus2=171339250.1 switch=y r1=0.001 x1=0.001 r0=0.001 x0=0.001 Length=0.001 units=km
New Line.PME4023-4$PME4023-1 phases=3 Bus1=53320986.1.2.3 Bus2=53320987.1.2.3 switch=y r1=0.001 x1=0.001 r0=0.001 x0=0.001 Length=0.001 units=km
New Line.PME4023-4$PME4023-3 phases=3 Bus1=53320986.1.2.3 Bus2=53320993.1.2.3 switch=y r1=0.001 x1=0.001 r0=0.001 x0=0.001 Length=0.001 units=km
New Line.53382454 phases=2 Bus1=53382457.2.3 Bus2=53382456.2.3 switch=y r1=0.001 x1=0.001 r0=0.001 x0=0.001 Length=0.001 units=km
New Line.98496516 phases=1 Bus1=98496518.2 Bus2=98496519.2 switch=y r1=0.001 x1=0.001 r0=0.001 x0=0.001 Length=0.001 units=km
New Line.98497708 phases=1 Bus1=98497710.2 Bus2=98497711.2 switch=y r1=0.001 x1=0.001 r0=0.001 x0=0.001 Length=0.001 units=km
New Line.98499952 phases=1 Bus1=98499954.2 Bus2=98499955.2 switch=y r1=0.001 x1=0.001 r0=0.001 x0=0.001 Length=0.001 units=km
New Line.98786073 phases=1 Bus1=98786076.3 Bus2=98786075.3 switch=y r1=0.001 x1=0.001 r0=0.001 x0=0.001 Length=0.001 units=km
New Line.98786882 phases=1 Bus1=98786884.2 Bus2=98786885.2 switch=y r1=0.001 x1=0.001 r0=0.001 x0=0.001 Length=0.001 units=km
New Line.98787034 phases=1 Bus1=98787036.3 Bus2=98787037.3 switch=y r1=0.001 x1=0.001 r0=0.001 x0=0.001 Length=0.001 units=km
New Line.98496568 phases=1 Bus1=98496570.1 Bus2=98496571.1 switch=y r1=0.001 x1=0.001 r0=0.001 x0=0.001 Length=0.001 units=km
New Line.98496693 phases=1 Bus1=98496695.1 Bus2=98496696.1 switch=y r1=0.001 x1=0.001 r0=0.001 x0=0.001 Length=0.001 units=km
New Line.98497783 phases=1 Bus1=98497786.3 Bus2=98497785.3 switch=y r1=0.001 x1=0.001 r0=0.001 x0=0.001 Length=0.001 units=km
New Line.98499675 phases=1 Bus1=98499677.3 Bus2=98499678.3 switch=y r1=0.001 x1=0.001 r0=0.001 x0=0.001 Length=0.001 units=km
New Line.98499827 phases=1 Bus1=98499830.2 Bus2=98499829.2 switch=y r1=0.001 x1=0.001 r0=0.001 x0=0.001 Length=0.001 units=km
New Line.98499877 phases=1 Bus1=98499879.2 Bus2=98499880.2 switch=y r1=0.001 x1=0.001 r0=0.001 x0=0.001 Length=0.001 units=km
New Line.98497358 phases=1 Bus1=98497361.1 Bus2=98497360.1 switch=y r1=0.001 x1=0.001 r0=0.001 x0=0.001 Length=0.001 units=km
New Line.98499650 phases=1 Bus1=98499652.3 Bus2=98499653.3 switch=y r1=0.001 x1=0.001 r0=0.001 x0=0.001 Length=0.001 units=km
New Line.98786098 phases=1 Bus1=98786100.3 Bus2=98786101.3 switch=y r1=0.001 x1=0.001 r0=0.001 x0=0.001 Length=0.001 units=km
New Line.98786425 phases=1 Bus1=98786428.1 Bus2=98786427.1 switch=y r1=0.001 x1=0.001 r0=0.001 x0=0.001 Length=0.001 units=km
New Line.98469996 phases=1 Bus1=98469998.1 Bus2=98469999.1 switch=y r1=0.001 x1=0.001 r0=0.001 x0=0.001 Length=0.001 units=km
New Line.98497808 phases=1 Bus1=98497810.3 Bus2=98497811.3 switch=y r1=0.001 x1=0.001 r0=0.001 x0=0.001 Length=0.001 units=km
New Line.98498149 phases=1 Bus1=98498152.1 Bus2=98498151.1 switch=y r1=0.001 x1=0.001 r0=0.001 x0=0.001 Length=0.001 units=km
New Line.98499852 phases=1 Bus1=98499854.2 Bus2=98499855.2 switch=y r1=0.001 x1=0.001 r0=0.001 x0=0.001 Length=0.001 units=km
New Line.98784224 phases=1 Bus1=98784226.2 Bus2=98784227.2 switch=y r1=0.001 x1=0.001 r0=0.001 x0=0.001 Length=0.001 units=km
New Line.98784299 phases=1 Bus1=98784301.2 Bus2=98784302.2 switch=y r1=0.001 x1=0.001 r0=0.001 x0=0.001 Length=0.001 units=km
New Line.98784399 phases=1 Bus1=98784401.3 Bus2=98784402.3 switch=y r1=0.001 x1=0.001 r0=0.001 x0=0.001 Length=0.001 units=km
New Line.98785498 phases=1 Bus1=98785501.1 Bus2=98785500.1 switch=y r1=0.001 x1=0.001 r0=0.001 x0=0.001 Length=0.001 units=km
New Line.98785525 phases=1 Bus1=98785527.3 Bus2=98785528.3 switch=y r1=0.001 x1=0.001 r0=0.001 x0=0.001 Length=0.001 units=km
New Line.98785602 phases=1 Bus1=98785604.2 Bus2=98785605.2 switch=y r1=0.001 x1=0.001 r0=0.001 x0=0.001 Length=0.001 units=km
New Line.98785627 phases=1 Bus1=98785629.2 Bus2=98785630.2 switch=y r1=0.001 x1=0.001 r0=0.001 x0=0.001 Length=0.001 units=km
New Line.98497383 phases=1 Bus1=98497385.1 Bus2=98497386.1 switch=y r1=0.001 x1=0.001 r0=0.001 x0=0.001 Length=0.001 units=km
New Line.98497558 phases=1 Bus1=98497561.2 Bus2=98497560.2 switch=y r1=0.001 x1=0.001 r0=0.001 x0=0.001 Length=0.001 units=km
New Line.98786450 phases=1 Bus1=98786452.1 Bus2=98786453.1 switch=y r1=0.001 x1=0.001 r0=0.001 x0=0.001 Length=0.001 units=km
New Line.175307265 phases=3 Bus1=175307267.1.2.3 Bus2=175307268.1.2.3 switch=y r1=0.001 x1=0.001 r0=0.001 x0=0.001 Length=0.001 units=km
New Line.83966996 phases=1 Bus1=83966998.2 Bus2=83966999.2 switch=y r1=0.001 x1=0.001 r0=0.001 x0=0.001 Length=0.001 units=km
New Line.83967046 phases=1 Bus1=83967048.3 Bus2=83967049.3 switch=y r1=0.001 x1=0.001 r0=0.001 x0=0.001 Length=0.001 units=km
New Line.98496543 phases=1 Bus1=98496546.2 Bus2=98496545.2 switch=y r1=0.001 x1=0.001 r0=0.001 x0=0.001 Length=0.001 units=km
New Line.98497733 phases=1 Bus1=98497736.2 Bus2=98497735.2 switch=y r1=0.001 x1=0.001 r0=0.001 x0=0.001 Length=0.001 units=km
New Line.98498174 phases=1 Bus1=98498176.1 Bus2=98498177.1 switch=y r1=0.001 x1=0.001 r0=0.001 x0=0.001 Length=0.001 units=km
New Line.98784474 phases=1 Bus1=98784477.1 Bus2=98784476.1 switch=y r1=0.001 x1=0.001 r0=0.001 x0=0.001 Length=0.001 units=km
New Line.98785852 phases=1 Bus1=98785854.1 Bus2=98785855.1 switch=y r1=0.001 x1=0.001 r0=0.001 x0=0.001 Length=0.001 units=km
New Line.98786907 phases=1 Bus1=98786910.2 Bus2=98786909.2 switch=y r1=0.001 x1=0.001 r0=0.001 x0=0.001 Length=0.001 units=km
New Line.98787059 phases=1 Bus1=98787062.3 Bus2=98787061.3 switch=y r1=0.001 x1=0.001 r0=0.001 x0=0.001 Length=0.001 units=km
New Line.PME5159-4$PME5159-1 phases=3 Bus1=53379855.1.2.3 Bus2=53379856.1.2.3 switch=y r1=0.001 x1=0.001 r0=0.001 x0=0.001 Length=0.001 units=km
New Line.PME5159-4$PME5159-3 phases=3 Bus1=53379855.1.2.3 Bus2=53379862.1.2.3 switch=y r1=0.001 x1=0.001 r0=0.001 x0=0.001 Length=0.001 units=km
New Line.98496593 phases=1 Bus1=98496596.1 Bus2=98496595.1 switch=y r1=0.001 x1=0.001 r0=0.001 x0=0.001 Length=0.001 units=km
New Line.98496718 phases=1 Bus1=98496721.1 Bus2=98496720.1 switch=y r1=0.001 x1=0.001 r0=0.001 x0=0.001 Length=0.001 units=km
New Line.98497583 phases=1 Bus1=98497585.2 Bus2=98497586.2 switch=y r1=0.001 x1=0.001 r0=0.001 x0=0.001 Length=0.001 units=km
New Line.98499902 phases=1 Bus1=98499905.2 Bus2=98499904.2 switch=y r1=0.001 x1=0.001 r0=0.001 x0=0.001 Length=0.001 units=km
New Line.98496643 phases=1 Bus1=98496645.2 Bus2=98496646.2 switch=y r1=0.001 x1=0.001 r0=0.001 x0=0.001 Length=0.001 units=km
New Line.98786123 phases=1 Bus1=98786126.3 Bus2=98786125.3 switch=y r1=0.001 x1=0.001 r0=0.001 x0=0.001 Length=0.001 units=km
New Line.98786932 phases=1 Bus1=98786934.2 Bus2=98786935.2 switch=y r1=0.001 x1=0.001 r0=0.001 x0=0.001 Length=0.001 units=km
New Line.98787084 phases=1 Bus1=98787086.3 Bus2=98787087.3 switch=y r1=0.001 x1=0.001 r0=0.001 x0=0.001 Length=0.001 units=km
New Line.PME7422-4$PME7422-1 phases=3 Bus1=175307099.1.2.3 Bus2=175307100.1.2.3 switch=y r1=0.001 x1=0.001 r0=0.001 x0=0.001 Length=0.001 units=km
New Line.PME7422-4$PME7422-3 phases=3 Bus1=175307099.1.2.3 Bus2=175307106.1.2.3 switch=y r1=0.001 x1=0.001 r0=0.001 x0=0.001 Length=0.001 units=km
New Line.98496618 phases=1 Bus1=98496620.1 Bus2=98496621.1 switch=y r1=0.001 x1=0.001 r0=0.001 x0=0.001 Length=0.001 units=km
New Line.98496743 phases=1 Bus1=98496745.1 Bus2=98496746.1 switch=y r1=0.001 x1=0.001 r0=0.001 x0=0.001 Length=0.001 units=km
New Line.98499927 phases=1 Bus1=98499929.2 Bus2=98499930.2 switch=y r1=0.001 x1=0.001 r0=0.001 x0=0.001 Length=0.001 units=km
New Line.98784049 phases=1 Bus1=98784052.1 Bus2=98784051.1 switch=y r1=0.001 x1=0.001 r0=0.001 x0=0.001 Length=0.001 units=km
New Line.98784249 phases=1 Bus1=98784252.2 Bus2=98784251.2 switch=y r1=0.001 x1=0.001 r0=0.001 x0=0.001 Length=0.001 units=km
New Line.98784324 phases=1 Bus1=98784327.2 Bus2=98784326.2 switch=y r1=0.001 x1=0.001 r0=0.001 x0=0.001 Length=0.001 units=km
New Line.98784424 phases=1 Bus1=98784427.3 Bus2=98784426.3 switch=y r1=0.001 x1=0.001 r0=0.001 x0=0.001 Length=0.001 units=km
New Line.98784499 phases=1 Bus1=98784501.1 Bus2=98784502.1 switch=y r1=0.001 x1=0.001 r0=0.001 x0=0.001 Length=0.001 units=km
New Line.98784524 phases=1 Bus1=98784526.1 Bus2=98784527.1 switch=y r1=0.001 x1=0.001 r0=0.001 x0=0.001 Length=0.001 units=km
New Line.98785552 phases=1 Bus1=98785555.3 Bus2=98785554.3 switch=y r1=0.001 x1=0.001 r0=0.001 x0=0.001 Length=0.001 units=km
New Line.98785652 phases=1 Bus1=98785655.2 Bus2=98785654.2 switch=y r1=0.001 x1=0.001 r0=0.001 x0=0.001 Length=0.001 units=km
New Line.98497408 phases=1 Bus1=98497411.1 Bus2=98497410.1 switch=y r1=0.001 x1=0.001 r0=0.001 x0=0.001 Length=0.001 units=km
New Line.98498762 phases=1 Bus1=98498764.2 Bus2=98498765.2 switch=y r1=0.001 x1=0.001 r0=0.001 x0=0.001 Length=0.001 units=km
New Line.98498912 phases=1 Bus1=98498914.3 Bus2=98498915.3 switch=y r1=0.001 x1=0.001 r0=0.001 x0=0.001 Length=0.001 units=km
New Line.98498962 phases=1 Bus1=98498964.2 Bus2=98498965.2 switch=y r1=0.001 x1=0.001 r0=0.001 x0=0.001 Length=0.001 units=km
New Line.98786148 phases=1 Bus1=98786150.3 Bus2=98786151.3 switch=y r1=0.001 x1=0.001 r0=0.001 x0=0.001 Length=0.001 units=km
New Line.98786475 phases=1 Bus1=98786478.1 Bus2=98786477.1 switch=y r1=0.001 x1=0.001 r0=0.001 x0=0.001 Length=0.001 units=km
New Line.175307562 phases=1 Bus1=175307565.2 Bus2=175307564.2 switch=y r1=0.001 x1=0.001 r0=0.001 x0=0.001 Length=0.001 units=km
New Line.83967036 phases=1 Bus1=83967039.3 Bus2=83967038.3 switch=y r1=0.001 x1=0.001 r0=0.001 x0=0.001 Length=0.001 units=km
New Line.98498199 phases=1 Bus1=98498202.1 Bus2=98498201.1 switch=y r1=0.001 x1=0.001 r0=0.001 x0=0.001 Length=0.001 units=km
New Line.98498685 phases=1 Bus1=98498687.1 Bus2=98498688.1 switch=y r1=0.001 x1=0.001 r0=0.001 x0=0.001 Length=0.001 units=km
New Line.98784274 phases=1 Bus1=98784276.2 Bus2=98784277.2 switch=y r1=0.001 x1=0.001 r0=0.001 x0=0.001 Length=0.001 units=km
New Line.98784349 phases=1 Bus1=98784351.2 Bus2=98784352.2 switch=y r1=0.001 x1=0.001 r0=0.001 x0=0.001 Length=0.001 units=km
New Line.98784449 phases=1 Bus1=98784451.3 Bus2=98784452.3 switch=y r1=0.001 x1=0.001 r0=0.001 x0=0.001 Length=0.001 units=km
New Line.98785577 phases=1 Bus1=98785579.3 Bus2=98785580.3 switch=y r1=0.001 x1=0.001 r0=0.001 x0=0.001 Length=0.001 units=km
New Line.98785677 phases=1 Bus1=98785679.2 Bus2=98785680.2 switch=y r1=0.001 x1=0.001 r0=0.001 x0=0.001 Length=0.001 units=km
New Line.98785877 phases=1 Bus1=98785880.1 Bus2=98785879.1 switch=y r1=0.001 x1=0.001 r0=0.001 x0=0.001 Length=0.001 units=km
New Line.175307527 phases=1 Bus1=175307530.1 Bus2=175307529.1 switch=y r1=0.001 x1=0.001 r0=0.001 x0=0.001 Length=0.001 units=km
New Line.175307629 phases=1 Bus1=175307632.3 Bus2=175307631.3 switch=y r1=0.001 x1=0.001 r0=0.001 x0=0.001 Length=0.001 units=km
New Line.53320028 phases=1 Bus1=53320030.2 Bus2=53320031.2 switch=y r1=0.001 x1=0.001 r0=0.001 x0=0.001 Length=0.001 units=km
New Line.53320202 phases=1 Bus1=53320204.2 Bus2=53320205.2 switch=y r1=0.001 x1=0.001 r0=0.001 x0=0.001 Length=0.001 units=km
New Line.98497433 phases=1 Bus1=98497435.1 Bus2=98497436.1 switch=y r1=0.001 x1=0.001 r0=0.001 x0=0.001 Length=0.001 units=km
New Line.98498837 phases=1 Bus1=98498839.1 Bus2=98498840.1 switch=y r1=0.001 x1=0.001 r0=0.001 x0=0.001 Length=0.001 units=km
New Line.98784074 phases=1 Bus1=98784076.1 Bus2=98784077.1 switch=y r1=0.001 x1=0.001 r0=0.001 x0=0.001 Length=0.001 units=km
New Line.98784149 phases=1 Bus1=98784151.1 Bus2=98784152.1 switch=y r1=0.001 x1=0.001 r0=0.001 x0=0.001 Length=0.001 units=km
New Line.98786500 phases=1 Bus1=98786502.1 Bus2=98786503.1 switch=y r1=0.001 x1=0.001 r0=0.001 x0=0.001 Length=0.001 units=km
New Line.175307589 phases=1 Bus1=175307591.2 Bus2=175307592.2 switch=y r1=0.001 x1=0.001 r0=0.001 x0=0.001 Length=0.001 units=km
New Line.53320471 phases=1 Bus1=53320473.3 Bus2=53320474.3 switch=y r1=0.001 x1=0.001 r0=0.001 x0=0.001 Length=0.001 units=km
New Line.98496668 phases=1 Bus1=98496671.2 Bus2=98496670.2 switch=y r1=0.001 x1=0.001 r0=0.001 x0=0.001 Length=0.001 units=km
New Line.98498224 phases=1 Bus1=98498226.1 Bus2=98498227.1 switch=y r1=0.001 x1=0.001 r0=0.001 x0=0.001 Length=0.001 units=km
New Line.98785902 phases=1 Bus1=98785904.1 Bus2=98785905.1 switch=y r1=0.001 x1=0.001 r0=0.001 x0=0.001 Length=0.001 units=km
New Line.175307500 phases=1 Bus1=175307502.1 Bus2=175307503.1 switch=y r1=0.001 x1=0.001 r0=0.001 x0=0.001 Length=0.001 units=km
New Line.178765182 phases=1 Bus1=178765184.3 Bus2=178765185.3 switch=y r1=0.001 x1=0.001 r0=0.001 x0=0.001 Length=0.001 units=km
New Line.98496805 phases=1 Bus1=98496808.1 Bus2=98496807.1 switch=y r1=0.001 x1=0.001 r0=0.001 x0=0.001 Length=0.001 units=km
New Line.98498787 phases=1 Bus1=98498790.2 Bus2=98498789.2 switch=y r1=0.001 x1=0.001 r0=0.001 x0=0.001 Length=0.001 units=km
New Line.98498937 phases=1 Bus1=98498940.3 Bus2=98498939.3 switch=y r1=0.001 x1=0.001 r0=0.001 x0=0.001 Length=0.001 units=km
New Line.98498987 phases=1 Bus1=98498990.2 Bus2=98498989.2 switch=y r1=0.001 x1=0.001 r0=0.001 x0=0.001 Length=0.001 units=km
New Line.98784374 phases=1 Bus1=98784376.1 Bus2=98784377.1 switch=y r1=0.001 x1=0.001 r0=0.001 x0=0.001 Length=0.001 units=km
New Line.98786173 phases=1 Bus1=98786176.3 Bus2=98786175.3 switch=y r1=0.001 x1=0.001 r0=0.001 x0=0.001 Length=0.001 units=km
New Line.98496830 phases=1 Bus1=98496832.1 Bus2=98496833.1 switch=y r1=0.001 x1=0.001 r0=0.001 x0=0.001 Length=0.001 units=km
New Line.98496855 phases=1 Bus1=98496857.2 Bus2=98496858.2 switch=y r1=0.001 x1=0.001 r0=0.001 x0=0.001 Length=0.001 units=km
New Line.98496930 phases=1 Bus1=98496932.2 Bus2=98496933.2 switch=y r1=0.001 x1=0.001 r0=0.001 x0=0.001 Length=0.001 units=km
New Line.98498712 phases=1 Bus1=98498715.1 Bus2=98498714.1 switch=y r1=0.001 x1=0.001 r0=0.001 x0=0.001 Length=0.001 units=km
New Line.98785702 phases=1 Bus1=98785705.2 Bus2=98785704.2 switch=y r1=0.001 x1=0.001 r0=0.001 x0=0.001 Length=0.001 units=km
New Line.53320018 phases=1 Bus1=53320021.2 Bus2=53320020.2 switch=y r1=0.001 x1=0.001 r0=0.001 x0=0.001 Length=0.001 units=km
New Line.53320192 phases=1 Bus1=53320195.2 Bus2=53320194.2 switch=y r1=0.001 x1=0.001 r0=0.001 x0=0.001 Length=0.001 units=km
New Line.98497458 phases=1 Bus1=98497461.1 Bus2=98497460.1 switch=y r1=0.001 x1=0.001 r0=0.001 x0=0.001 Length=0.001 units=km
New Line.98498812 phases=1 Bus1=98498814.2 Bus2=98498815.2 switch=y r1=0.001 x1=0.001 r0=0.001 x0=0.001 Length=0.001 units=km
New Line.98498862 phases=1 Bus1=98498865.1 Bus2=98498864.1 switch=y r1=0.001 x1=0.001 r0=0.001 x0=0.001 Length=0.001 units=km
New Line.98499012 phases=1 Bus1=98499014.2 Bus2=98499015.2 switch=y r1=0.001 x1=0.001 r0=0.001 x0=0.001 Length=0.001 units=km
New Line.98499037 phases=1 Bus1=98499039.3 Bus2=98499040.3 switch=y r1=0.001 x1=0.001 r0=0.001 x0=0.001 Length=0.001 units=km
New Line.98784099 phases=1 Bus1=98784102.1 Bus2=98784101.1 switch=y r1=0.001 x1=0.001 r0=0.001 x0=0.001 Length=0.001 units=km
New Line.98786198 phases=1 Bus1=98786200.3 Bus2=98786201.3 switch=y r1=0.001 x1=0.001 r0=0.001 x0=0.001 Length=0.001 units=km
New Line.98786525 phases=1 Bus1=98786528.1 Bus2=98786527.1 switch=y r1=0.001 x1=0.001 r0=0.001 x0=0.001 Length=0.001 units=km
New Line.178764965 phases=1 Bus1=178764968.2 Bus2=178764967.2 switch=y r1=0.001 x1=0.001 r0=0.001 x0=0.001 Length=0.001 units=km
New Line.98498737 phases=1 Bus1=98498739.1 Bus2=98498740.1 switch=y r1=0.001 x1=0.001 r0=0.001 x0=0.001 Length=0.001 units=km
New Line.98784174 phases=1 Bus1=98784177.1 Bus2=98784176.1 switch=y r1=0.001 x1=0.001 r0=0.001 x0=0.001 Length=0.001 units=km
New Line.98785727 phases=1 Bus1=98785729.2 Bus2=98785730.2 switch=y r1=0.001 x1=0.001 r0=0.001 x0=0.001 Length=0.001 units=km
New Line.98785927 phases=1 Bus1=98785930.1 Bus2=98785929.1 switch=y r1=0.001 x1=0.001 r0=0.001 x0=0.001 Length=0.001 units=km
New Line.178765209 phases=1 Bus1=178765212.3 Bus2=178765211.3 switch=y r1=0.001 x1=0.001 r0=0.001 x0=0.001 Length=0.001 units=km
New Line.178765515 phases=1 Bus1=178765518.1 Bus2=178765517.1 switch=y r1=0.001 x1=0.001 r0=0.001 x0=0.001 Length=0.001 units=km
New Line.53319936 phases=1 Bus1=53319938.2 Bus2=53319939.2 switch=y r1=0.001 x1=0.001 r0=0.001 x0=0.001 Length=0.001 units=km
New Line.53320110 phases=1 Bus1=53320112.2 Bus2=53320113.2 switch=y r1=0.001 x1=0.001 r0=0.001 x0=0.001 Length=0.001 units=km
New Line.98497483 phases=1 Bus1=98497485.1 Bus2=98497486.1 switch=y r1=0.001 x1=0.001 r0=0.001 x0=0.001 Length=0.001 units=km
New Line.98498249 phases=1 Bus1=98498252.1 Bus2=98498251.1 switch=y r1=0.001 x1=0.001 r0=0.001 x0=0.001 Length=0.001 units=km
New Line.98498274 phases=1 Bus1=98498276.1 Bus2=98498277.1 switch=y r1=0.001 x1=0.001 r0=0.001 x0=0.001 Length=0.001 units=km
New Line.98498887 phases=1 Bus1=98498889.1 Bus2=98498890.1 switch=y r1=0.001 x1=0.001 r0=0.001 x0=0.001 Length=0.001 units=km
New Line.98784124 phases=1 Bus1=98784126.1 Bus2=98784127.1 switch=y r1=0.001 x1=0.001 r0=0.001 x0=0.001 Length=0.001 units=km
New Line.98786550 phases=1 Bus1=98786552.1 Bus2=98786553.1 switch=y r1=0.001 x1=0.001 r0=0.001 x0=0.001 Length=0.001 units=km
New Line.178764992 phases=1 Bus1=178764994.2 Bus2=178764995.2 switch=y r1=0.001 x1=0.001 r0=0.001 x0=0.001 Length=0.001 units=km
...

! Loads
New Load.5522447 Bus1=-99999953380285.3.0 phases=1 kV=0.069282 kW=0 kvar=0 model=1
New Load.5522441 Bus1=-99999953380193.2.0 phases=1 kV=0.069282 kW=0 kvar=0 model=1
New Load.5490321 Bus1=-99999953321488.3.0 phases=1 kV=0.069282 kW=0 kvar=0 model=1
New Load.5522446 Bus1=-99999953380633.2.0 phases=1 kV=0.069282 kW=0 kvar=0 model=1
New Load.5487719 Bus1=-99999953344384.2.0 phases=1 kV=0.069282 kW=0 kvar=0 model=1
New Load.5474768 Bus1=-99999953347965.1.0 phases=1 kV=0.069282 kW=0 kvar=0 model=1
New Load.5481273 Bus1=-99999953346472.1.0 phases=1 kV=0.069282 kW=0 kvar=0 model=1
New Load.5474781 Bus1=-99999953347413.1.0 phases=1 kV=0.069282 kW=0 kvar=0 model=1
New Load.5474771 Bus1=-99999953347781.1.0 phases=1 kV=0.069282 kW=0 kvar=0 model=1
New Load.5487945 Bus1=-99999953344988.1.0 phases=1 kV=0.069282 kW=0 kvar=0 model=1
New Load.5523212 Bus1=-99999953381237.1.0 phases=1 kV=0.069282 kW=0 kvar=0 model=1
New Load.5490390 Bus1=-99999953320219.2.0 phases=1 kV=0.069282 kW=0 kvar=0 model=1
New Load.5490392 Bus1=-99999953320045.2.0 phases=1 kV=0.069282 kW=0 kvar=0 model=1
New Load.5481275 Bus1=-99999953346288.1.0 phases=1 kV=0.069282 kW=0 kvar=0 model=1
New Load.5465462 Bus1=-99999953381853.3.0 phases=1 kV=0.069282 kW=0 kvar=0 model=1
New Load.5465460 Bus1=-99999953364907.2.0 phases=1 kV=0.069282 kW=0 kvar=0 model=1
New Load.5492187 Bus1=-99999953381411.2.0 phases=1 kV=0.069282 kW=0 kvar=0 model=1
New Load.5481634 Bus1=-99999953347201.3.0 phases=1 kV=0.069282 kW=0 kvar=0 model=1
New Load.5465456 Bus1=-99999953365183.2.0 phases=1 kV=0.069282 kW=0 kvar=0 model=1
New Load.5474769 Bus1=-99999953347873.1.0 phases=1 kV=0.069282 kW=0 kvar=0 model=1
New Load.5481274 Bus1=-99999953346380.1.0 phases=1 kV=0.069282 kW=0 kvar=0 model=1
New Load.5481276 Bus1=-99999953346196.1.0 phases=1 kV=0.069282 kW=0 kvar=0 model=1
New Load.5650530 Bus1=-999999178764054.1.0 phases=1 kV=0.069282 kW=0 kvar=0 model=1
New Load.5650539 Bus1=-999999178764333.3.0 phases=1 kV=0.069282 kW=0 kvar=0 model=1
New Load.5487759 Bus1=-99999953381483.3.0 phases=1 kV=0.069282 kW=0 kvar=0 model=1
New Load.5488578 Bus1=-99999953381627.3.0 phases=1 kV=0.069282 kW=0 kvar=0 model=1
New Load.5485367 Bus1=-99999953345858.3.0 phases=1 kV=0.069282 kW=0 kvar=0 model=1
New Load.5485373 Bus1=-99999953345602.2.0 phases=1 kV=0.069282 kW=0 kvar=0 model=1
New Load.5474778 Bus1=-99999953347597.3.0 phases=1 kV=0.069282 kW=0 kvar=0 model=1
New Load.5476878_0 Bus1=-99999953322419.1.0 phases=1 kV=0.159926 kW=0 kvar=0 model=1
New Load.5476878_1 Bus1=-99999953322419.2.0 phases=1 kV=0.159926 kW=0 kvar=0 model=1
New Load.5476878_2 Bus1=-99999953322419.3.0 phases=1 kV=0.159926 kW=0 kvar=0 model=1
New Load.5488579 Bus1=-99999953381555.3.0 phases=1 kV=0.069282 kW=0 kvar=0 model=1
New Load.5465457 Bus1=-99999953365265.2.0 phases=1 kV=0.069282 kW=0 kvar=0 model=1
New Load.5650537 Bus1=-999999178764471.3.0 phases=1 kV=0.069282 kW=0 kvar=0 model=1
New Load.5650508 Bus1=-999999175307355.1.0 phases=1 kV=0.069282 kW=0 kvar=0 model=1
New Load.5494989 Bus1=-99999953364116.2.0 phases=1 kV=0.069282 kW=0 kvar=0 model=1
New Load.5479076 Bus1=-99999953348405.1.0 phases=1 kV=0.069282 kW=0 kvar=0 model=1
New Load.5481592 Bus1=-99999953345336.2.0 phases=1 kV=0.069282 kW=0 kvar=0 model=1
New Load.5494990 Bus1=-99999953364300.2.0 phases=1 kV=0.069282 kW=0 kvar=0 model=1
New Load.5479081 Bus1=-99999953348139.2.0 phases=1 kV=0.069282 kW=0 kvar=0 model=1
New Load.5485375 Bus1=-99999953345510.2.0 phases=1 kV=0.069282 kW=0 kvar=0 model=1
New Load.5490076 Bus1=-99999953321754.3.0 phases=1 kV=0.069282 kW=0 kvar=0 model=1
New Load.5489703 Bus1=-99999953322184.3.0 phases=1 kV=0.069282 kW=0 kvar=0 model=1
New Load.5494986 Bus1=-99999953364395.3.0 phases=1 kV=0.069282 kW=0 kvar=0 model=1
New Load.5485368 Bus1=-99999953346032.3.0 phases=1 kV=0.069282 kW=0 kvar=0 model=1
New Load.5494542 Bus1=-99999953320570.2.0 phases=1 kV=0.069282 kW=0 kvar=0 model=1
New Load.5488577 Bus1=-99999953381699.3.0 phases=1 kV=0.069282 kW=0 kvar=0 model=1
New Load.5485372 Bus1=-99999953345694.2.0 phases=1 kV=0.069282 kW=0 kvar=0 model=1
New Load.5465458 Bus1=-99999953365091.2.0 phases=1 kV=0.069282 kW=0 kvar=0 model=1
New Load.5477970 Bus1=-99999953319871.3.0 phases=1 kV=0.069282 kW=0 kvar=0 model=1
New Load.5468988 Bus1=-99999953382628.2.0 phases=1 kV=0.138564 kW=0 kvar=0 model=1
New Load.5494992 Bus1=-99999953364487.2.0 phases=1 kV=0.069282 kW=0 kvar=0 model=1
New Load.5521936 Bus1=-99999953381145.1.0 phases=1 kV=0.069282 kW=0 kvar=0 model=1
New Load.5487721 Bus1=-99999953322730.1.0 phases=1 kV=0.069282 kW=0 kvar=0 model=1
New Load.5542197 Bus1=-99999953321140.2.0 phases=1 kV=0.069282 kW=0 kvar=0 model=1
New Load.5489581 Bus1=-99999953321222.2.0 phases=1 kV=0.069282 kW=0 kvar=0 model=1
New Load.5485370 Bus1=-99999953346114.3.0 phases=1 kV=0.069282 kW=0 kvar=0 model=1
New Load.5490319 Bus1=-99999953321672.3.0 phases=1 kV=0.069282 kW=0 kvar=0 model=1
New Load.5485366 Bus1=-99999953345940.3.0 phases=1 kV=0.069282 kW=0 kvar=0 model=1
New Load.5465461 Bus1=-99999953365357.3.0 phases=1 kV=0.069282 kW=0 kvar=0 model=1
New Load.5481878 Bus1=-99999953346741.2.0 phases=1 kV=0.069282 kW=0 kvar=0 model=1
New Load.5487722 Bus1=-99999953322638.2.0 phases=1 kV=0.069282 kW=0 kvar=0 model=1
New Load.5486377 Bus1=-99999953322266.2.0 phases=1 kV=0.069282 kW=0 kvar=0 model=1
New Load.5468992 Bus1=-99999953361856.1.0 phases=1 kV=0.069282 kW=0 kvar=0 model=1
New Load.5465459 Bus1=-99999953364999.2.0 phases=1 kV=0.069282 kW=0 kvar=0 model=1
New Load.5650533 Bus1=-999999178764675.2.0 phases=1 kV=0.069282 kW=0 kvar=0 model=1
New Load.5522442 Bus1=-99999953380111.2.0 phases=1 kV=0.069282 kW=0 kvar=0 model=1
New Load.5522445 Bus1=-99999953380377.2.0 phases=1 kV=0.069282 kW=0 kvar=0 model=1
New Load.5522443 Bus1=-99999953380019.3.0 phases=1 kV=0.069282 kW=0 kvar=0 model=1
New Load.5490320 Bus1=-99999953321580.3.0 phases=1 kV=0.069282 kW=0 kvar=0 model=1
New Load.5650536 Bus1=-999999178764607.2.0 phases=1 kV=0.069282 kW=0 kvar=0 model=1
New Load.5487965 Bus1=-99999953345070.1.0 phases=1 kV=0.069282 kW=0 kvar=0 model=1
New Load.5489700 Bus1=-99999953322010.1.0 phases=1 kV=0.069282 kW=0 kvar=0 model=1
New Load.5486376 Bus1=-99999953322348.2.0 phases=1 kV=0.069282 kW=0 kvar=0 model=1
New Load.5489699 Bus1=-99999953321928.1.0 phases=1 kV=0.069282 kW=0 kvar=0 model=1
...